CONNOR
BINGES
DEUCEY
VIPERS
WEETOT
SASINS
PACKIN
GABBEH
ISAYNO
SPANGS
SHREDS
FLASKS
GUSTED
EDROTH
BRYSON
PROMDJ
FIXINS
ZONKEY
EATSAN
KIMOON
TITHED
WRONGS
AWGOON
ILLMET
KLIMTS
OLDFOE
RESINS
BASSER
ABLARE
LEANNS
DUCKYS
MURICA
ANDNOW
OOCYST
OVERIN
WELOST
RAINEY
DRUMON
SERENA
HOWLED
RICHEY
TOLEAN
INFOAL
ALTAIS
MULCTS
HOUDON
REEBOK
BADASS
THERMO
SCAGGS
WENTTO
HOTCAR
CARONS
WITHUS
BARLOW
ALEGAR
CHIAKI
TUNERS
NOSEUP
PRTSCN
CREWEL
ROGUED
UNOWED
JIBERS
JINSOO
NADIAS
RETYPE
GQTYPE
SUPPED
EZPASS
MATSUI
AFLASH
LENDTO
BROILS
RONRON
SHAKOS
ORAJEL
RAPPED
RUNLET
IMAMAC
REEKER
THETAP
FLUTEY
SUSSED
GANJAS
YOUCAN
BOXTOP
JIBEAT
MARYJO
JANINE
POOKIE
GTILES
WANNER
RENOED
LENOIR
MINETA
SUEBEE
CHAWED
RESITS
IDIDSO
POOPER
PEAKER
WITTED
SLIDES
LINENS
OHIBET
AHOUND
REALIA
AMEBAE
TELLIT
BOBSEY
ROHMER
CANOES
WRYEST
CIBOLA
UNSEND
PORKIE
GNOSES
THEWHO
TROLLY
HURLED
ONCALL
JUKING
FBLOCK
WWFRAW
CARATS
IWATCH
TAROCS
NOSHES
MCLYTE
DRUMIN
THEWAR
AEDILE
INARCH
QUINTO
FAIROE
PLACEA
IMCOOL
CBSEYE
PASHAS
SHEASS
ATONER
WAHOOS
ALSHON
HITSIT
OSWEGO
SHIEST
XRATED
PETROV
ABABYS
SHROFF
DONETS
TAGOUT
EATRAW
GUISES
SOLDAT
ECRIME
NOLAWS
STANKY
PEERIN
INTENS
HELICO
REUSED
JOBROS
CANDYS
SELDES
MEADER
RIGORS
REWARN
ATNITE
BUSTEE
ASTART
COLICS
SILANE
DRUPAL
WARMEN
FAILUP
RUDETO
FBIMEN
TRACEE
MUGHAL
SLICES
OHTANI
YEOLDE
TOOTIN
ACESUP
FLAILS
DOZILY
XTREME
EUONYM
LAMOUR
FATASS
BELATE
RODELO
ULCERS
DARDEN
DCTENS
IAMOLD
PANTED
MUTIVE
KOINES
BIGASS
CAZZIE
OLIVET
GREWAN
STOVED
EDGERS
RELIED
THEDOG
RULERS
OMANIS
FOURNO
MTCOOK
INKPEN
ONEUPS
DUALLY
IDIOTA
PRICKY
DARNAY
RULETH
ELOANS
ICUBED
NICKED
WHOLES
NOMISM
SMALLO
STIERS
EWELLS
MIMING
EILERS
DRIFTY
CANTHI
WAITUP
YEROUT
OATERS
SATINE
DOXXED
RAMSON
REWINS
IMDEAD
YACHTY
SCHOEN
UPRATE
RACERS
GRACES
HOPOFF
NEEDST
RAREUP
BONDED
CADRES
THELAM
DIDNTI
TRIMUP
FLYBOY
THEFOX
CONGAS
TRICEP
MRWOLF
PHIALS
CRYPTO
DIRELY
OXLIKE
ALLAHS
EARVIN
TOREIN
LYNYRD
BEGUMS
WAZIRS
LYMPHS
NOTCHY
SPACEK
DUANES
GAMGEE
SLUGGO
BUNKOS
USTOUR
PUSHED
RINGIN
GUERRE
KUMISS
AUDENS
LUFFAS
RRXING
BULLETS
THELOOP
MULLOCK
DUFFELS
KARDASH
SCHISTS
WHOISHE
BOATERS
INFILLS
MACACOS
PLUMPLY
WACOTEX
MEIOSES
BURGLES
GETOPEN
GOAWAYS
FANFOLD
RIKSHAW
ICESOUT
HUDSONS
ONERATE
SWINGAT
CALPACS
DITCHER
REANNEX
ORVILLE
ROBUSTO
SPIRTED
BOXOJOE
MUMFORD
BEEPSAT
PANARAB
AIRWARS
CARDSET
UNFIXES
DALZELL
POSEURS
PAYSOFF
SPEWSUP
REDSUIT
WETKISS
CURTEST
BLUERED
FRAGGED
KINGSUP
NESTLER
SHANGTI
ALLYALL
STORING
ARENSKY
PRECUTS
SEAMANS
TOWNERS
HOTKEYS
EYELINE
ESTADOS
COOKSON
SLIPSUP
AZODYES
ATLATLS
FOCSLES
COGSETS
MENONLY
OWNAGUN
KEEPERS
URGINGS
TRITONE
WEIGHUP
FLICKED
HOUSEMD
CORINNE
RILLING
TENTBAG
DOINGIT
BEGSFOR
DROGUES
MEALIER
LETTERL
KOOZIES
WESTING
TUXEDAS
GINGOLD
CAVALLO
TOWAGES
BOWYERS
GOLIGHT
IMPALER
BLUEBOX
HASANIP
ECOCIDE
BARSEAT
DELGESU
SLUMMED
GYROCAR
CREPTUP
REAMERS
ELBARTO
FOGARTY
XYLITOL
FARNHAM
PEPPERS
BIDDIES
BAREFIT
UTAHUTE
TREATAS
CHICITY
HANAUMA
HOWRUDE
CRAFTED
LETSFLY
FATTING
FORMANT
FOKKERS
CENTRES
CATCAFE
PIGLIKE
CONRADI
HOGWILD
MYMAMMY
NOIDONT
BILBOES
TOUTERS
TENNERS
NINEMEN
HELMOND
MICHAUD
MUDPIES
MINUTKA
DEATHTO
TOLLMEN
BLEEPIN
CURLSIN
JANGLER
BRAYERS
YELLFOR
RUNTIER
WACHTEL
TENNANT
IREPEAT
TILTING
JUSTMEN
VERANOS
BODYWAX
PLUSHER
REWEIGH
HOTBETS
SAVATES
REGLOSS
HEWEDTO
TIPPETS
GOTUGLY
USEDOIL
TVSTARS
CHOWING
PINKGIN
GETDONE
CLAUDEL
BAGLESS
HONORER
WILDMEN
VERIZON
ROOSTED
LIGATES
NEWDADS
WREXHAM
LUCIANO
PERIODS
SNOCAPS
INJECTS
SPEIGHT
TINHATS
LEGOCAR
LADYISH
BEEGEES
FLAGLER
SNEAKON
RANTERS
MISSLOU
BIRCHER
LIKEICE
CLACKER
BLUEMAX
FURBABY
SITSLOW
VISUALS
GAINSON
NEOTECH
ABASERS
FLAXBUN
TEARSAT
SLOWBRO
REVILES
CARTFUL
BINGLES
DRYSKIN
KOREANS
OLDPROS
WAVESHI
WIIPLAY
ORDERUP
NEXTDAY
RENTSTO
SYENITE
SNOOZER
IMPOSTS
GULCHES
THENUTS
MATINAL
COALING
POOPING
RUNDLES
SONNETS
ARTMONK
WALTRIP
EUNICES
ALOADOF
EARPICK
CHERUBS
HESMINE
SINDHIS
JUSTFYI
OPENSET
HUSHFUL
MARINAS
SUBSFOR
PARCELS
BRADLEE
DEFANGS
UPLIFTS
SLABBED
NICOLAY
VERVETS
DOTTING
CHESBRO
DECARLO
XELJANZ
BARBETS
FLUKING
CARDERS
GASPERS
ISADORE
MADDERS
DYETEST
TIMECOP
HARDSIX
KERNING
PRYTHEE
FEDERER
PULLTAB
THEINUS
BADHAND
STEIGER
ROCKOUT
LINNETS
TRASHES
TEDTALK
NEMESES
THREPIN
PUBSONG
KENOLIN
MUTUALS
POTIONS
UPRATES
AIRTAXI
WORKMEN
SPORULE
OOZIEST
HHINGES
TRULIFE
REDARES
ITSAHIT
KEYDROP
NOISSUE
BEANGRY
NOBBLED
POOLERS
ERICIII
NETLINE
OLDLACE
GLAZING
FLATTVS
REEMITS
BASKING
WALLACH
OPENERS
TESTFOR
WAXBILL
ELEGIES
MICDROP
FURORES
OTCDRUG
BLONDIE
BUCHMAN
GETSOLD
GEORGEC
CURVIER
FURLESS
RAVAGES
HPSAUCE
GYMCLUB
RUSTEZE
SIMTOWN
HATBAGS
NOVELLE
GAFFING
PRAISED
SUPRISE
STEPVAN
DOOBIES
BORGIAS
INFUSED
HAVANAN
UNFAZED
TOOKTEA
CALISTA
SLUGBUG
NOOGIES
CABLETS
NETCAFE
NOTINIT
IWONDER
SETBAIL
RAPIDER
CAMBIST
AUTOSPA
STOPSTO
MICRONS
FIDELIS
ESZETTS
LOLLERS
DOBRUJA
TARZANS
ICESAWS
METCARD
UPABOVE
PITHIER
JOHANNA
LYESOAP
TROTTED
UNAGING
TRENDUP
GOIRISH
PHLOXES
GODFREY
LOCALAD
CENACLE
MINORLY
RIBBITS
CLERKLY
YALEMAN
LIZSHAW
DEJECTS
GOTLAST
ATLIENS
UPBUILT
ONEREED
GAGGLED
ORIOLES
RETELLS
GLYCOLS
TINORES
ALBERTS
POTTING
LEJEUNE
SILLILY
GOTHITS
GETWITH
MAITRES
DECKGUN
UNQUEEN
NATWICK
ARRESTS
MOMMIES
FACIALS
FILLION
CEPACOL
ADNOUNS
CEREALS
SIGHSAT
GULFIER
GULLIES
NERDOUT
GARANDS
ITSAZOO
BUTTIES
SEAOWLS
BIRTHER
LAPTOPS
KIDDING
EACHWAY
TANKINI
SHINIER
CHAFFED
DICIEST
NONFOOD
INSTILS
BIGSTAR
GREWOUT
DQTREAT
GASSERS
SEATRIP
ORGASMS
APARADE
MALISON
REDSUNS
SAWANEW
UCCELLO
LAHAINA
HEGIRAS
NEEDIER
PALMARY
MALPAIS
COLDISH
MWAHAHA
STEMPEL
NAIADES
RANARMS
BOOKSIN
JACQUET
BLUINGS
INAPOSE
BIGBOYS
LITELLA
OHHELLO
THEDOOR
SACHEEN
KATANAS
MOCKUPS
UNADULT
PLUTOED
HASSLES
FLEECED
FRIDAYS
ACTEDON
GLUESON
ESTHERS
GOLDARN
SCHLITZ
SUVLIMO
LINKROT
WISEONE
INDEPTH
VIBISTS
ONTRUST
CLERICS
RUNGOFF
TALKOUT
RHEBOKS
RUPERTS
AMADEUS
DREXELU
DRSPOCK
FLAMMED
DEPOSES
STASHES
DUELLED
CARREEN
BEFOULS
PHISHES
DAMASKS
ELKCALF
EMBARKS
WINDERS
CUDDIES
ALIBIES
YOUBABY
THEWALK
ORNOONE
HAYRIDE
DOICARE
PATTERS
PGMOVIE
WIDDLES
OLDCARS
REPACED
NODRAFT
BIGJAKE
BADMOOD
SNIZZLE
IPADAPP
ERELONG
PIETIES
BOROMIR
VILLOUS
RODENTS
RADIALS
PLOWSUP
BLOUSON
SCRAWLY
GAUZIER
SCANDIA
SPINETS
NOSHADE
FLEADIP
BUCKRAS
BERETTA
BRANDTS
LESABRE
MARBURY
BABYSAT
JOHNXXI
GROLIER
DEBURGH
ATADBIT
DRYTOWN
IMDRUNK
UNICODE
GOATISH
OLDGANG
STEWSIN
BANDITS
SIMIANS
FASCIAE
BARKSAT
STUCKIN
TANKING
PETARDS
ZATHURA
BONEBED
SIOBHAN
TAVENER
LINDIES
TWEENER
BITINTO
ONEILLS
CRAMMED
REDRAWS
NUMERUS
DAYSAIL
METAMER
LEADUPS
CLAPOFF
TUMULTS
LYFTCAR
WASILLA
STOWERS
CRINGED
MACONGA
LYNCHER
ALIGHTS
GLOSSAE
YLEVELS
MYFUNNY
GNAWSAT
MANSMAN
BMOVIES
RITDYES
RECIPES
DEEDIDO
BRISTOW
METCALF
BUDLIKE
MORISON
CODCAKE
EGGLESS
COOKOFF
SCHRANK
SPINSUP
FUCKBOY
SOAKSIN
DROODLE
LEGATES
RATIOED
AMASSED
MESSTIN
RODDICK
BIGGERS
COWRITE
OFFEREE
XAVIERS
GADROON
MOONIES
GOGGLER
ENCASES
CARROMS
RELODGE
UNSOLID
EASYOUT
FLIPFOR
REDACTS
FOLIOED
ASHLAND
VEINLET
FRYABLE
FAREWAR
JACINDA
ENDORAS
REVIVOR
SHUNNED
INAIDOF
NERFBAR
CAGNEYS
EELSKIN
BORINGS
ALLHAIL
MAYNARD
REHEARS
UNRULED
PICOULT
SONSHIP
OKSHOOT
ROTGUTS
TAPAKEG
KUTCHER
RESTAFF
SERENES
MULCHER
TOASTOF
COMMITS
SOLDERS
ZELDAII
INTREAT
SWANKED
DEADMEN
JPGFILE
DEWCLAW
YEANING
JUMPSAT
ROBBERS
PISCOLA
DELANYS
JOWLIER
LIAISES
HATTIPS
BLESSER
HOCUSES
HEATMAP
RAJPUTS
SHOWDOG
RESAVES
TEENPOP
BROHAWK
WARPIGS
HAIRBOW
SPOKEON
SHOOTEE
METERED
DENTALS
ILLKEPT
THEGOUT
RIDGWAY
VICECOP
AWRIGHT
CULKINS
ALBINOS
ATHREAD
VACATER
DELUDES
SUTTEES
SHOTPAR
SWATSAT
DAWDLED
FALSEST
REPRICE
BOWMANS
TEEBALL
JUDOGIS
PERMILL
PRISSES
KINNEAR
KLGOING
DRYMOPS
BUGEYES
CALLSIT
BANTERS
REGLUES
GOODFUN
HUMERAL
BEAMILY
PLACIDO
TREPANS
OVOIDAL
RATTANS
CASINOS
KRAMNIK
DOGEARS
ANDAONE
RANVIER
JAYSEAN
KOSOVAN
SUMOBOT
GROANAT
PLATYPI
NFLSTAR
EVENEST
FAKETAN
TWOHIGH
TVWIVES
SHULMAN
WINUGLY
SOCCERS
JEWFROS
EDGESIN
NARKING
THEOAKS
BASHERS
SEASLED
HALPERN
ONESLEG
LIMEPIE
RANUPTO
DARNELL
HOTWARS
INAROUT
LUREOUT
SHEWILL
FLITOUT
JOBFAIR
WHATIFS
OMENIII
ONATOOT
CAJOLED
FARINAS
NEWTABS
MOMBLOG
ITALICS
MOZETTA
