NUMBAT
NUMBLY
NUMPTY
NUTTED
NYBBLE
NYMPHO
OCKERS
OEDEMA
OFFALS
OFFCUT
OPERON
ORDURE
ORPHIC
OSTIUM
OUZELS
OXTERS
PADAUK
PAEONS
PAEONY
PAGING
PALPUS
PANDIT
PANTOS
PAPPED
PAPULE
PARANG
PARGET
PARKIN
PASHES
PATTEE
PAVAGE
PAVANS
PAYNIM
PEACES
PEASES
PECKER
PEDALO
PEDLAR
PEEING
PEEWIT
PEGTOP
PELMET
PELTRY
PELVES
PHAGES
PHALLI
PHOTIC
PHYSIO
PICKUP
PIGNUT
PILAFF
PIMPLE
PIMPLY
PINETA
PINGER
PINIER
PINNAE
PINYON
PIPEUP
PIPITS
PIPKIN
PIPPED
PISSER
PISSES
PISSUP
PISTES
PITHED
PITTAS
PIZZLE
PLAGAL
PLAGUY
PLASHY
PLAYED
PLEACH
PLONKS
PLUMMY
POCKED
PODDED
POGEYS
POGIES
POGOED
POKEYS
POLACK
POLDER
POLING
POLIOS
POLLEX
POLONY
POMMIE
POMPOM
POMPON
PONCES
PONGED
PONGID
PONTES
POOTLE
POPERY
POPISH
POPPET
PORNOS
POSSET
POSTIE
POTBOY
POTMAN
POTTLE
POTTOS
POUFFE
POXIER
PRANGS
PRATER
PRAXIS
PRECIS
PREVUS
PRINKS
PRIONS
PROEMS
PROPYL
PROSES
PROVED
PRUNUS
PTOSIS
PULLER
PULLIN
PULLUP
PULPED
PUNILY
PUNNET
PUPPED
PURDAH
PURGER
PURINE
PURITY
PURSUR
PURSUS
PUTPUT
PUTTEE
PYEDOG
PYROPE
QFEVER
QUAGGA
QUAGGY
QUANGO
QUANTS
QUARTE
QUERER
QUERLY
QUICKS
QUIFFS
QUINSY
QUIPUS
QUIRES
QUIRKS
QUIRTS
QUOINS
QUOKKA
QUOTHA
RACKED
RADDLE
RAJPUT
RAMIES
RANKLY
RASING
RATRUN
RATTAT
RAVEUP
RAYING
RAZING
RAZZLE
REAVER
REBURY
RECCES
RECKED
REDGUM
REDMAN
REDDLE
REDING
RENEGU
RESITS
REVERY
RHEUMS
RHOMBS
RHUMBS
RICKED
RIFFED
RIFTED
RIGOUR
RIGOUT
RIMING
ROLLON
ROSETS
ROSILY
ROUBLE
ROZZER
RUDDLE
RUDELY
RUFFES
RUGOSE
RUMMER
RUMPLY
RUNINS
RUNUPS
SABBAT
SABRED
SADDOS
SADHUS
SAGGER
SAILER
SALVED
SARNIE
SATANG
SATNAV
SAULTS
SAUTES
SAWFLY
SCABBY
SCANTS
SCATTY
SCILLA
SCOUSE
SCREES
SCROTA
SCRUMP
SCUMMY
SCURFY
SCURVY
SCUZZY
SEAMAT
SEMTEX
SENORS
SERVAL
SETTOS
SEXILY
SEXING
SHAMMY
SHAWMS
SHEBOP
SHEIKH
SHELLY
SHELVY
SHERIF
SHEWED
SHIRTY
SHITES
SHMOES
SHOJIS
SHOOKS
SHUFTI
SHUTIN
SICKED
SICKIE
SIMOON
SIRDAR
SIRUPS
SITINS
SKEANS
SKILLY
SKIVED
SKIVES
SKIVVY
SKYBLU
SLAPUP
SLATEY
SLAVEY
SLIPPY
SLUDGY
SLUMMY
SLUTTY
SMILAX
SMUDGY
SNARKY
SNIFFY
SODOMY
SOFFIT
SONSIE
SOOTED
SOOTHS
SORBED
SOUDAN
SOUGHS
SOWBUG
SPADIX
SPALLS
SPICAS
SPILTH
SPIRTS
SPITAL
SPROGS
SPRUIK
SPUING
SPUNKS
SPURRY
SPUTUM
SQUAWS
STATAL
STILLY
STOUPS
STRAWY
STREPS
STRINE
STROMA
STRUMA
STRUTH
SUBDUR
SUBDUS
SUCKED
SUDORS
SUFFER
SULPHA
SUMACH
SUMMAT
SUNBED
SUSSES
SUTLER
SUTTEE
SWAGED
SWAGES
SWANKS
SWIFTS
SWINES
SWINGE
SWINKS
SWISHY
SYLVAS
TABOUR
TAKEUP
TANGLY
TANKAS
TANNOY
TATTIE
TAUTOG
TAZZAS
TEDEUM
TEAZEL
TEEMER
TELCOS
TENREC
TERCET
TEREDO
TERMER
TERMLY
TESTES
TESTIS
TETANY
THERMO
THEYVE
THICKO
THICKS
THOUGH
THREED
THRIPS
THROVE
THRUMS
THYMOL
TIDDLY
TIEINS
TILTHS
TINNER
TIPCAT
TIPPEX
TITBIT
TITCHY
TITERS
TITHER
TODGER
TOERAG
TOPSUP
TOPUPS
TOSHES
TOSSUP
TOTEUP
TOTHER
TOTTIE
TOUCHE
TOWNEE
TRIFID
TRILBY
TRIMER
TRIPOS
TROGON
TROVER
TROWED
TRUBLU
TRULLS
TSWANA
TUAREG
TUBBED
TUCKET
TUGGER
TUGRIK
TUMORS
TUMOUR
TURBIT
TURVES
TUTTUT
TWEENY
TWEEST
TWIRPS
TYMPAN
TYPHON
UBIETY
UGLIFY
UGRIAN
UMBELS
UMBLES
UNBARS
UNDOCK
UNDULY
UNFITS
UNGUAL
UNMANS
UNPICK
UPRATE
UPRUSH
URANYL
UREMIA
UREMIC
URINES
USANCE
VAGARY
VALOIS
VALORS
VALOUR
VALURS
VAMPER
VAPORY
VAPOUR
VEGGED
VEGGES
VENIAL
VENINS
VENOSE
VERIFY
VERSOS
VEXING
VIBRIO
VILLUS
VINOUS
VINYLS
VISCUS
VIVIFY
VIZARD
VOIDER
VOLANT
VOLVOX
VOWERS
VULVAL
VULVAR
VULVAS
WADIES
WAGGED
WAGGON
WAKERS
WALKON
WALKUP
WALLRU
WALLED
WANNER
WANTER
WARDER
WAYOUT
WEBTOP
WEENED
WELKIN
WELLIE
WELTED
WHACKO
WHACKY
WHEALS
WHERRY
WHILOM
WHIPPY
WHISHT
WHISKY
WHISTS
WHITED
WHORED
WHORES
WICKED
WIDDLE
WIDISH
WIGEON
WIGHTS
WILTON
WINCEY
WINDER
WINKER
WINKLE
WISENT
WITHAL
WITHES
WIVERN
WIVING
WOBBLY
WOODED
WORKIN
WOTCHA
WOUNDS
WRATHY
XRAYED
YACKED
YAMENS
YARDIE
YAWLED
YAWPED
YOBBOS
YOKUTS
YORUBA
YOUALL
ZEUGMA
ZINCED
ZOFTIG
ZOMBIS
ZOUAVE
ZYMASE
AAAUGH
AAFAIR
AAHING
ABABYS
ABASER
ABATER
ABATIS
ABBREV
ABCDEF
ABELES
ABHORS
ABINGE
ABLATE
ABLUSH
ABNERS
ABOLLA
ABONNE
ABORAL
ABRAMS
ABRUPT
ABUSER
ABUTON
ABYSMS
ACADIE
ACAUSE
ACCOST
ACCTNO
ACEDIA
ACEDIT
ACELLS
ACETIN
ACETYL
ACHEBE
ACHEER
ACHENE
ACHOOS
ACINUS
ACTIVA
ACTSOF
ACTSON
ACUTES
ADDAMS
ADDEND
ADDLES
ADDSIN
ADDUCE
ADEEMS
ADELEH
ADELES
ADEVIL
ADFEES
ADIEUX
ADJURE
ADKINS
ADNATE
ADNEXA
ADOLFO
ADOLPH
ADREAD
ADVERB
ADWEEK
ADZING
AEDILE
AEOLIA
AEOLUS
AERIFY
AETHER
AFFECT
AFFINE
AFFORD
AFFRAY
AFLARE
AFLATS
AFTERS
AGADIR
AGAMIC
AGARIC
AGENAS
AGEOUT
AGETEN
AGETWO
AGLINT
AGNATE
AGNEWS
AGONAL
AGORAE
AGORAS
AGREER
AGREES
AHERNE
AHNOLD
AHOUND
AIDERS
AIDFUL
AIDMAN
AILERS
AILING
AIMEES
AIMERS
AIMING
AIMSTO
AIOLIS
AIRBUS
AIRGUN
AIRING
AIRLOG
AIRMAP
AIRMEN
AIRWAR
AJOBON
ALAINS
ALARIC
ALARUM
ALBANS
ALBANY
ALBION
ALCAPP
ALCIDS
ALCINA
ALCORN
ALDENS
ALDINE
ALDISS
ALDOUS
ALEASH
ALEAVE
ALECTO
ALEGAR
ALEGUP
ALEKEG
ALEPHS
ALETTE
ALEUTS
ALEXES
ALEXIA
ALFINE
ALGREN
ALHAIG
ALIGNS
ALINED
ALINER
ALINES
ALIOTH
ALIPED
ALKANE
ALKENE
ALKYDS
ALLANS
ALLAYS
ALLENS
ALLEYS
ALLIED
ALLMEN
ALLONE
ALLOTS
ALLPRO
ALLRED
ALLYOU
ALOHAS
ALRITZ
ALSOPS
ALSTON
ALTAIS
ALTONS
ALTTAB
ALUDEL
ALVINS
ALYDAR
AMADIS
AMALFI
AMALIE
AMATCH
AMATOL
AMAZED
AMBERS
AMBITS
AMBLES
AMBLIN
AMBUSH
AMEBAE
AMEBIC
AMEDEO
AMEERS
AMENDE
AMENTO
AMERRY
AMEXES
AMICUS
AMIDES
AMIENS
AMINER
AMINES
AMOLES
AMORES
AMORTS
AMOURS
AMOUSE
AMPLER
AMPULE
AMRITA
AMTRAC
AMUSED
AMUSER
AMVETS
ANABEL
ANANAS
ANDRAE
ANGELI
ANGELL
ANGLIA
ANGLIC
ANGSTS
ANIGHT
ANIMAS
ANITAS
ANITRA
ANJOUS
ANNEES
ANNIES
ANNUIT
ANNULS
ANODAL
ANODIC
ANOTCH
ANOXIA
ANOXIC
ANSARA
ANSATE
ANSELS
ANTAWN
ANTERO
ANTHRO
ANTIGO
ANTONE
ANTONS
ANTRIM
ANTRUM
ANUBIS
ANYHOO
ANYMAN
AOLERS
AORTAL
APANIC
APEACH
APELET
APICES
APITCH
APLITE
APNEAL
APODAL
APPELS
APPOSE
APPROX
APULIA
AQUILA
ARAISE
ARAMID
ARBELA
ARBOUR
ARCADY
ARCCOS
ARCING
ARDENS
AREZZO
ARFARF
ARGALI
ARGONS
ARGUED
ARGYLL
ARIDLY
ARIELS
ARIGHT
ARKINS
ARLENS
ARMAGH
ARMATA
ARMING
ARNICA
ARNIES
ARRANT
ARSENO
ARTAUD
ARTHRO
ARTHUR
ARTOIS
ARVADA
ARYANS
ASACAT
ASAPIN
ASBURY
ASFAST
ASFLAT
ASHAKE
ASHBIN
ASHEEP
ASHELL
ASHINE
ASHLEE
ASHMEN
ASISAY
ASKYOU
ASLONG
ASMANY
ASMARA
ASNEAR
ASNEAT
ASONIA
ASPISH
ASPORT
ASPREE
ASPURE
ASSADS
ASSEEN
ASSIZE
ASTACK
ASTART
ASTATE
ASTEAL
ASTERO
ASTERS
ASTOOP
ASTRES
ASTRID
ASWOON
ATAMAN
ATARMS
ATARUN
ATCAMP
ATERGO
ATERRE
ATHING
ATHROB
ATONIA
ATOOTH
ATOSSA
ATROIS
ATSTUD
ATTARS
ATTICS
AUBADE
AUDENS
AUDIAL
AUDILE
AUDRAN
AUFAIT
AUGEAN
AUGERS
AUGHTS
AUGITE
AUGURY
AUKLET
AURATE
AURIGA
AUROCH
AUROUS
AUSTER
AUSTRO
AUTOED
AVAUNT
AVEDON
AVERYS
AVIANS
AVISES
AVISOS
AVOCET
AVOTRE
AVOWAL
AVULSE
AWAKED
AWAKER
AWAKES
AWLESS
AWNUTS
AXEMAN
AXHEAD
AXSEED
AYMARA
AZODYE
AZTECA
AZURES
BABELS
BABKAS
BABOON
BACKIN
BACKUP
BACKUS
BACONS
BADBOY
BADDAY
BADDER
BADEGG
BADEMS
BADEND
BADFIT
BADGUY
BADLOT
BADMEN
BAFFIN
BAFFLE
BAGELS
BAGFUL
BAGGER
BAGGIE
BAGMEN
BAGSIT
BAHAMA
BAILEE
BAILER
BAILOR
BAIRDS
BAIRNS
BAITED
BAITER
BAKERS
BAKERY
BAKING
BAKKER
BALAAM
BALATA
BALDED
BALERS
BALINE
BALING
BALLAD
BALLOT
BALLOU
BALLST
BALLUP
BALLYS
BALTIC
BALZAC
BANDIT
BANGLE
BANGOR
BANGUI
BANISH
BANKER
BANNED
BANTUS
BANYAN
BAOBAB
BARBED
BARBER
BARBIE
BARCAR
BARELY
BARFLY
BARGES
BARING
BARITE
BARKER
BARKIN
BARLEY
BARMAN
BARNED
BARNET
BARNEY
BARNUM
BAROJA
BARONY
BARRED
BARREN
BARRET
BARRIE
BARRIS
BARRON
BARROW
BARTER
BARTON
BASELY
BASHER
BASHES
BASHIN
BASIAL
BASINS
BASKED
BASKET
BASKIN
BASSEY
BASSOS
BASTER
BATAAN
BATBOY
BATDAY
BATHED
BATHER
